LTspice 24.0.12 for Windows
Circuit: * C:\Users\winpa\OneDrive\Desktop\Perceptron\Circuit 2\Perceptron.asc
Start Time: Mon Jul 22 13:09:19 2024
solver = Normal
Maximum thread count: 16
tnom = 27
temp = 27
method = modified trap
Instance "m:x1:1": Length shorter than recommended for a level 1 MOSFET.
Instance "m:x1:1": Width narrower than recommended for a level 1 MOSFET.
Instance "m:x1:2": Length shorter than recommended for a level 1 MOSFET.
Instance "m:x1:2": Width narrower than recommended for a level 1 MOSFET.
Instance "m:x1:3": Length shorter than recommended for a level 1 MOSFET.
Instance "m:x1:3": Width narrower than recommended for a level 1 MOSFET.
Instance "m:x1:4": Length shorter than recommended for a level 1 MOSFET.
Instance "m:x1:4": Width narrower than recommended for a level 1 MOSFET.
Instance "m:x1:5": Length shorter than recommended for a level 1 MOSFET.
Instance "m:x1:5": Width narrower than recommended for a level 1 MOSFET.
Instance "m:x1:6": Length shorter than recommended for a level 1 MOSFET.
Instance "m:x1:6": Width narrower than recommended for a level 1 MOSFET.
Instance "m:x1:7": Length shorter than recommended for a level 1 MOSFET.
Instance "m:x1:7": Width narrower than recommended for a level 1 MOSFET.
Instance "m:x1:8": Length shorter than recommended for a level 1 MOSFET.
Instance "m:x1:8": Width narrower than recommended for a level 1 MOSFET.
Instance "m:x1:9": Length shorter than recommended for a level 1 MOSFET.
Instance "m:x1:9": Width narrower than recommended for a level 1 MOSFET.
Instance "m:x1:x1:1": Length shorter than recommended for a level 1 MOSFET.
Instance "m:x1:x1:1": Width narrower than recommended for a level 1 MOSFET.
Instance "m:x1:x1:2": Length shorter than recommended for a level 1 MOSFET.
Instance "m:x1:x1:2": Width narrower than recommended for a level 1 MOSFET.
Instance "m:x1:x2:1": Length shorter than recommended for a level 1 MOSFET.
Instance "m:x1:x2:1": Width narrower than recommended for a level 1 MOSFET.
Instance "m:x1:x2:2": Length shorter than recommended for a level 1 MOSFET.
Instance "m:x1:x2:2": Width narrower than recommended for a level 1 MOSFET.
Instance "m:x1:x3:1": Length shorter than recommended for a level 1 MOSFET.
Instance "m:x1:x3:1": Width narrower than recommended for a level 1 MOSFET.
Instance "m:x1:x3:2": Length shorter than recommended for a level 1 MOSFET.
Instance "m:x1:x3:2": Width narrower than recommended for a level 1 MOSFET.
Instance "m:x1:x4:1": Length shorter than recommended for a level 1 MOSFET.
Instance "m:x1:x4:1": Width narrower than recommended for a level 1 MOSFET.
Instance "m:x1:x4:2": Length shorter than recommended for a level 1 MOSFET.
Instance "m:x1:x4:2": Width narrower than recommended for a level 1 MOSFET.
Instance "m:x1:x5:1": Length shorter than recommended for a level 1 MOSFET.
Instance "m:x1:x5:1": Width narrower than recommended for a level 1 MOSFET.
Instance "m:x1:x5:2": Length shorter than recommended for a level 1 MOSFET.
Instance "m:x1:x5:2": Width narrower than recommended for a level 1 MOSFET.
Instance "m:x2:1": Length shorter than recommended for a level 1 MOSFET.
Instance "m:x2:1": Width narrower than recommended for a level 1 MOSFET.
Instance "m:x2:2": Length shorter than recommended for a level 1 MOSFET.
Instance "m:x2:2": Width narrower than recommended for a level 1 MOSFET.
Instance "m:x2:3": Length shorter than recommended for a level 1 MOSFET.
Instance "m:x2:3": Width narrower than recommended for a level 1 MOSFET.
Instance "m:x2:4": Length shorter than recommended for a level 1 MOSFET.
Instance "m:x2:4": Width narrower than recommended for a level 1 MOSFET.
Instance "m:x2:5": Length shorter than recommended for a level 1 MOSFET.
Instance "m:x2:5": Width narrower than recommended for a level 1 MOSFET.
Instance "m:x2:6": Length shorter than recommended for a level 1 MOSFET.
Instance "m:x2:6": Width narrower than recommended for a level 1 MOSFET.
Instance "m:x2:7": Length shorter than recommended for a level 1 MOSFET.
Instance "m:x2:7": Width narrower than recommended for a level 1 MOSFET.
Instance "m:x2:8": Length shorter than recommended for a level 1 MOSFET.
Instance "m:x2:8": Width narrower than recommended for a level 1 MOSFET.
Instance "m:x2:9": Length shorter than recommended for a level 1 MOSFET.
Instance "m:x2:9": Width narrower than recommended for a level 1 MOSFET.
Instance "m:x2:x1:1": Length shorter than recommended for a level 1 MOSFET.
Instance "m:x2:x1:1": Width narrower than recommended for a level 1 MOSFET.
Instance "m:x2:x1:2": Length shorter than recommended for a level 1 MOSFET.
Instance "m:x2:x1:2": Width narrower than recommended for a level 1 MOSFET.
Instance "m:x2:x2:1": Length shorter than recommended for a level 1 MOSFET.
Instance "m:x2:x2:1": Width narrower than recommended for a level 1 MOSFET.
Instance "m:x2:x2:2": Length shorter than recommended for a level 1 MOSFET.
Instance "m:x2:x2:2": Width narrower than recommended for a level 1 MOSFET.
Instance "m:x2:x3:1": Length shorter than recommended for a level 1 MOSFET.
Instance "m:x2:x3:1": Width narrower than recommended for a level 1 MOSFET.
Instance "m:x2:x3:2": Length shorter than recommended for a level 1 MOSFET.
Instance "m:x2:x3:2": Width narrower than recommended for a level 1 MOSFET.
Instance "m:x2:x4:1": Length shorter than recommended for a level 1 MOSFET.
Instance "m:x2:x4:1": Width narrower than recommended for a level 1 MOSFET.
Instance "m:x2:x4:2": Length shorter than recommended for a level 1 MOSFET.
Instance "m:x2:x4:2": Width narrower than recommended for a level 1 MOSFET.
Instance "m:x2:x5:1": Length shorter than recommended for a level 1 MOSFET.
Instance "m:x2:x5:1": Width narrower than recommended for a level 1 MOSFET.
Instance "m:x2:x5:2": Length shorter than recommended for a level 1 MOSFET.
Instance "m:x2:x5:2": Width narrower than recommended for a level 1 MOSFET.
Direct Newton iteration for .op point succeeded.
Total elapsed time: 0.898 seconds.

