LTspice 24.0.12 for Windows
Circuit: * C:\Users\winpa\OneDrive\Desktop\Perceptron\Circuit 2\PerceptronV1.asc
Start Time: Mon Jul 22 13:11:42 2024
solver = Normal
Maximum thread count: 16
tnom = 27
temp = 27
method = modified trap
WARNING: Node NC_01 is floating.
WARNING: Node NC_03 is floating.
WARNING: Node NC_05 is floating.
WARNING: Node NC_07 is floating.

WARNING: Less than two connections to node nc_01.  This node is used by g1.
WARNING: Less than two connections to node nc_03.  This node is used by g2.
WARNING: Less than two connections to node nc_05.  This node is used by g3.
WARNING: Less than two connections to node nc_07.  This node is used by g4.
Instance "m:x2:1": Length shorter than recommended for a level 1 MOSFET.
Instance "m:x2:1": Width narrower than recommended for a level 1 MOSFET.
Instance "m:x2:2": Length shorter than recommended for a level 1 MOSFET.
Instance "m:x2:2": Width narrower than recommended for a level 1 MOSFET.
Instance "m:x2:3": Length shorter than recommended for a level 1 MOSFET.
Instance "m:x2:3": Width narrower than recommended for a level 1 MOSFET.
Instance "m:x2:4": Length shorter than recommended for a level 1 MOSFET.
Instance "m:x2:4": Width narrower than recommended for a level 1 MOSFET.
Instance "m:x2:5": Length shorter than recommended for a level 1 MOSFET.
Instance "m:x2:5": Width narrower than recommended for a level 1 MOSFET.
Instance "m:x2:6": Length shorter than recommended for a level 1 MOSFET.
Instance "m:x2:6": Width narrower than recommended for a level 1 MOSFET.
Instance "m:x2:7": Length shorter than recommended for a level 1 MOSFET.
Instance "m:x2:7": Width narrower than recommended for a level 1 MOSFET.
Instance "m:x2:8": Length shorter than recommended for a level 1 MOSFET.
Instance "m:x2:8": Width narrower than recommended for a level 1 MOSFET.
Instance "m:x2:9": Length shorter than recommended for a level 1 MOSFET.
Instance "m:x2:9": Width narrower than recommended for a level 1 MOSFET.
Instance "m:x2:x1:1": Length shorter than recommended for a level 1 MOSFET.
Instance "m:x2:x1:1": Width narrower than recommended for a level 1 MOSFET.
Instance "m:x2:x1:2": Length shorter than recommended for a level 1 MOSFET.
Instance "m:x2:x1:2": Width narrower than recommended for a level 1 MOSFET.
Instance "m:x2:x2:1": Length shorter than recommended for a level 1 MOSFET.
Instance "m:x2:x2:1": Width narrower than recommended for a level 1 MOSFET.
Instance "m:x2:x2:2": Length shorter than recommended for a level 1 MOSFET.
Instance "m:x2:x2:2": Width narrower than recommended for a level 1 MOSFET.
Instance "m:x2:x3:1": Length shorter than recommended for a level 1 MOSFET.
Instance "m:x2:x3:1": Width narrower than recommended for a level 1 MOSFET.
Instance "m:x2:x3:2": Length shorter than recommended for a level 1 MOSFET.
Instance "m:x2:x3:2": Width narrower than recommended for a level 1 MOSFET.
Instance "m:x2:x4:1": Length shorter than recommended for a level 1 MOSFET.
Instance "m:x2:x4:1": Width narrower than recommended for a level 1 MOSFET.
Instance "m:x2:x4:2": Length shorter than recommended for a level 1 MOSFET.
Instance "m:x2:x4:2": Width narrower than recommended for a level 1 MOSFET.
Instance "m:x2:x5:1": Length shorter than recommended for a level 1 MOSFET.
Instance "m:x2:x5:1": Width narrower than recommended for a level 1 MOSFET.
Instance "m:x2:x5:2": Length shorter than recommended for a level 1 MOSFET.
Instance "m:x2:x5:2": Width narrower than recommended for a level 1 MOSFET.
Instance "m:x1:1": Length shorter than recommended for a level 1 MOSFET.
Instance "m:x1:1": Width narrower than recommended for a level 1 MOSFET.
Instance "m:x1:2": Length shorter than recommended for a level 1 MOSFET.
Instance "m:x1:2": Width narrower than recommended for a level 1 MOSFET.
Instance "m:x1:3": Length shorter than recommended for a level 1 MOSFET.
Instance "m:x1:3": Width narrower than recommended for a level 1 MOSFET.
Instance "m:x1:4": Length shorter than recommended for a level 1 MOSFET.
Instance "m:x1:4": Width narrower than recommended for a level 1 MOSFET.
Instance "m:x1:5": Length shorter than recommended for a level 1 MOSFET.
Instance "m:x1:5": Width narrower than recommended for a level 1 MOSFET.
Instance "m:x1:6": Length shorter than recommended for a level 1 MOSFET.
Instance "m:x1:6": Width narrower than recommended for a level 1 MOSFET.
Instance "m:x1:7": Length shorter than recommended for a level 1 MOSFET.
Instance "m:x1:7": Width narrower than recommended for a level 1 MOSFET.
Instance "m:x1:8": Length shorter than recommended for a level 1 MOSFET.
Instance "m:x1:8": Width narrower than recommended for a level 1 MOSFET.
Instance "m:x1:9": Length shorter than recommended for a level 1 MOSFET.
Instance "m:x1:9": Width narrower than recommended for a level 1 MOSFET.
Instance "m:x1:x1:1": Length shorter than recommended for a level 1 MOSFET.
Instance "m:x1:x1:1": Width narrower than recommended for a level 1 MOSFET.
Instance "m:x1:x1:2": Length shorter than recommended for a level 1 MOSFET.
Instance "m:x1:x1:2": Width narrower than recommended for a level 1 MOSFET.
Instance "m:x1:x2:1": Length shorter than recommended for a level 1 MOSFET.
Instance "m:x1:x2:1": Width narrower than recommended for a level 1 MOSFET.
Instance "m:x1:x2:2": Length shorter than recommended for a level 1 MOSFET.
Instance "m:x1:x2:2": Width narrower than recommended for a level 1 MOSFET.
Instance "m:x1:x3:1": Length shorter than recommended for a level 1 MOSFET.
Instance "m:x1:x3:1": Width narrower than recommended for a level 1 MOSFET.
Instance "m:x1:x3:2": Length shorter than recommended for a level 1 MOSFET.
Instance "m:x1:x3:2": Width narrower than recommended for a level 1 MOSFET.
Instance "m:x1:x4:1": Length shorter than recommended for a level 1 MOSFET.
Instance "m:x1:x4:1": Width narrower than recommended for a level 1 MOSFET.
Instance "m:x1:x4:2": Length shorter than recommended for a level 1 MOSFET.
Instance "m:x1:x4:2": Width narrower than recommended for a level 1 MOSFET.
Instance "m:x1:x5:1": Length shorter than recommended for a level 1 MOSFET.
Instance "m:x1:x5:1": Width narrower than recommended for a level 1 MOSFET.
Instance "m:x1:x5:2": Length shorter than recommended for a level 1 MOSFET.
Instance "m:x1:x5:2": Width narrower than recommended for a level 1 MOSFET.
Instance "m:x3:1": Length shorter than recommended for a level 1 MOSFET.
Instance "m:x3:1": Width narrower than recommended for a level 1 MOSFET.
Instance "m:x3:2": Length shorter than recommended for a level 1 MOSFET.
Instance "m:x3:2": Width narrower than recommended for a level 1 MOSFET.
Instance "m:x3:3": Length shorter than recommended for a level 1 MOSFET.
Instance "m:x3:3": Width narrower than recommended for a level 1 MOSFET.
Instance "m:x3:4": Length shorter than recommended for a level 1 MOSFET.
Instance "m:x3:4": Width narrower than recommended for a level 1 MOSFET.
Instance "m:x3:5": Length shorter than recommended for a level 1 MOSFET.
Instance "m:x3:5": Width narrower than recommended for a level 1 MOSFET.
Instance "m:x3:6": Length shorter than recommended for a level 1 MOSFET.
Instance "m:x3:6": Width narrower than recommended for a level 1 MOSFET.
Instance "m:x3:7": Length shorter than recommended for a level 1 MOSFET.
Instance "m:x3:7": Width narrower than recommended for a level 1 MOSFET.
Instance "m:x3:8": Length shorter than recommended for a level 1 MOSFET.
Instance "m:x3:8": Width narrower than recommended for a level 1 MOSFET.
Instance "m:x3:9": Length shorter than recommended for a level 1 MOSFET.
Instance "m:x3:9": Width narrower than recommended for a level 1 MOSFET.
Instance "m:x3:x1:1": Length shorter than recommended for a level 1 MOSFET.
Instance "m:x3:x1:1": Width narrower than recommended for a level 1 MOSFET.
Instance "m:x3:x1:2": Length shorter than recommended for a level 1 MOSFET.
Instance "m:x3:x1:2": Width narrower than recommended for a level 1 MOSFET.
Instance "m:x3:x2:1": Length shorter than recommended for a level 1 MOSFET.
Instance "m:x3:x2:1": Width narrower than recommended for a level 1 MOSFET.
Instance "m:x3:x2:2": Length shorter than recommended for a level 1 MOSFET.
Instance "m:x3:x2:2": Width narrower than recommended for a level 1 MOSFET.
Instance "m:x3:x3:1": Length shorter than recommended for a level 1 MOSFET.
Instance "m:x3:x3:1": Width narrower than recommended for a level 1 MOSFET.
Instance "m:x3:x3:2": Length shorter than recommended for a level 1 MOSFET.
Instance "m:x3:x3:2": Width narrower than recommended for a level 1 MOSFET.
Instance "m:x3:x4:1": Length shorter than recommended for a level 1 MOSFET.
Instance "m:x3:x4:1": Width narrower than recommended for a level 1 MOSFET.
Instance "m:x3:x4:2": Length shorter than recommended for a level 1 MOSFET.
Instance "m:x3:x4:2": Width narrower than recommended for a level 1 MOSFET.
Instance "m:x3:x5:1": Length shorter than recommended for a level 1 MOSFET.
Instance "m:x3:x5:1": Width narrower than recommended for a level 1 MOSFET.
Instance "m:x3:x5:2": Length shorter than recommended for a level 1 MOSFET.
Instance "m:x3:x5:2": Width narrower than recommended for a level 1 MOSFET.
Instance "m:x4:1": Length shorter than recommended for a level 1 MOSFET.
Instance "m:x4:1": Width narrower than recommended for a level 1 MOSFET.
Instance "m:x4:2": Length shorter than recommended for a level 1 MOSFET.
Instance "m:x4:2": Width narrower than recommended for a level 1 MOSFET.
Instance "m:x4:3": Length shorter than recommended for a level 1 MOSFET.
Instance "m:x4:3": Width narrower than recommended for a level 1 MOSFET.
Instance "m:x4:4": Length shorter than recommended for a level 1 MOSFET.
Instance "m:x4:4": Width narrower than recommended for a level 1 MOSFET.
Instance "m:x4:5": Length shorter than recommended for a level 1 MOSFET.
Instance "m:x4:5": Width narrower than recommended for a level 1 MOSFET.
Instance "m:x4:6": Length shorter than recommended for a level 1 MOSFET.
Instance "m:x4:6": Width narrower than recommended for a level 1 MOSFET.
Instance "m:x4:7": Length shorter than recommended for a level 1 MOSFET.
Instance "m:x4:7": Width narrower than recommended for a level 1 MOSFET.
Instance "m:x4:8": Length shorter than recommended for a level 1 MOSFET.
Instance "m:x4:8": Width narrower than recommended for a level 1 MOSFET.
Instance "m:x4:9": Length shorter than recommended for a level 1 MOSFET.
Instance "m:x4:9": Width narrower than recommended for a level 1 MOSFET.
Instance "m:x4:x1:1": Length shorter than recommended for a level 1 MOSFET.
Instance "m:x4:x1:1": Width narrower than recommended for a level 1 MOSFET.
Instance "m:x4:x1:2": Length shorter than recommended for a level 1 MOSFET.
Instance "m:x4:x1:2": Width narrower than recommended for a level 1 MOSFET.
Instance "m:x4:x2:1": Length shorter than recommended for a level 1 MOSFET.
Instance "m:x4:x2:1": Width narrower than recommended for a level 1 MOSFET.
Instance "m:x4:x2:2": Length shorter than recommended for a level 1 MOSFET.
Instance "m:x4:x2:2": Width narrower than recommended for a level 1 MOSFET.
Instance "m:x4:x3:1": Length shorter than recommended for a level 1 MOSFET.
Instance "m:x4:x3:1": Width narrower than recommended for a level 1 MOSFET.
Instance "m:x4:x3:2": Length shorter than recommended for a level 1 MOSFET.
Instance "m:x4:x3:2": Width narrower than recommended for a level 1 MOSFET.
Instance "m:x4:x4:1": Length shorter than recommended for a level 1 MOSFET.
Instance "m:x4:x4:1": Width narrower than recommended for a level 1 MOSFET.
Instance "m:x4:x4:2": Length shorter than recommended for a level 1 MOSFET.
Instance "m:x4:x4:2": Width narrower than recommended for a level 1 MOSFET.
Instance "m:x4:x5:1": Length shorter than recommended for a level 1 MOSFET.
Instance "m:x4:x5:1": Width narrower than recommended for a level 1 MOSFET.
Instance "m:x4:x5:2": Length shorter than recommended for a level 1 MOSFET.
Instance "m:x4:x5:2": Width narrower than recommended for a level 1 MOSFET.
Direct Newton iteration for .op point succeeded.
Changing Tseed to 1e-13
Total elapsed time: 1.183 seconds.

